*Heading
** Job name: Job-1 Model name: Model-1
** Generated by: Abaqus/CAE 2020
*Preprint, echo=NO, model=NO, history=NO, contact=NO
**
** PARTS
**
*Part, name=Part-1
*Node
      1, 0.0301892478,  0.499087781,           0.
      2, 0.0901275203,  0.491809964,           0.
      3,  0.119657829,  0.485470921,           0.
      4,   0.17730245,  0.467508107,           0.
      5,  0.205206409,  0.455949932,           0.
      6,    0.2586689,  0.427890629,           0.
      7,  0.284032375,   0.41149193,           0.
      8,  0.331561327,  0.374255389,           0.
      9,  0.353553385,  0.353553385,           0.
     10,  0.393591732,  0.308359444,           0.
     11,   0.41149193,  0.284032375,           0.
     12,  0.442728013,  0.232361585,           0.
     13,  0.455949932,  0.205206409,           0.
     14,  0.477360427,  0.148751527,           0.
     15,  0.485470921,  0.119657829,           0.
     16,  0.496354431, 0.0602683388,           0.
     17,  0.499087781, 0.0301892478,           0.
     18,  0.499087781, -0.0301892478,           0.
     19,  0.496354431, -0.0602683388,           0.
     20,  0.485470921, -0.119657829,           0.
** ... 11916 like lines cut
*Element, type=C3D4
    1,  3559,  2146,  2179,  2180
    2,  3559,  2146,  2145,  2179
    3,  3559,  2145,  2178,  2179
    4,  3559,  2147,  2146,  2180
    5,  3559,  2179,  2214,  2215
    6,  3559,  2180,  2179,  2215
    7,  3560,  1909,  1908,  1945
    8,  3560,  1909,  1945,  1946
    9,  3560,  1910,  1909,  1946
   10,  3560,  1946,  1945,  1980
   11,  3560,  1945,  1979,  1980
   12,  3560,  1873,  1909,  1910
   13,  3561,    41,  1729,  1730
   14,  3561,    40,  1729,    41
   15,  3561,    39,    40,  1788
   16,  3561,  1788,    40,  1787
   17,  3561,  1787,    40,    41
   18,  3561,  1787,    41,  1786
   19,  3562,  1734,  1733,  3420
   20,  3562,  1733,  1732,  3421
** ... 60608 like lines cut
*Nset, nset=Set-1, generate
     1,  11936,      1
*Elset, elset=Set-1, generate
     1,  60628,      1
** Section: Section-1
*Solid Section, elset=Set-1, material=Material-1
,
*End Part
**  
**
** ASSEMBLY
**
*Assembly, name=Assembly
**  
*Instance, name=Part-1-1, part=Part-1
*End Instance
**  
*End Assembly
** 
** MATERIALS
** 
*Material, name=Material-1
*Elastic
 2.05e+11, 0.3
